Version 4
SHEET 1 992 680
WIRE -16 32 -64 32
WIRE 192 32 64 32
WIRE 192 48 192 32
WIRE -64 128 -64 32
WIRE 192 160 192 128
WIRE 480 160 192 160
WIRE 192 208 192 160
WIRE -512 224 -512 208
WIRE 144 224 96 224
WIRE 480 224 480 160
WIRE 144 272 128 272
WIRE -64 288 -64 208
WIRE -512 336 -512 304
WIRE -64 352 -64 288
WIRE 128 352 128 272
WIRE 128 352 -64 288
WIRE 192 352 192 288
WIRE 192 352 128 352
WIRE 480 352 480 288
FLAG -64 352 0
FLAG 96 224 s
FLAG -512 336 0
FLAG -512 208 s
FLAG 480 352 0
SYMBOL voltage -64 112 R0
SYMATTR InstName V1
SYMATTR Value 10
SYMBOL ind 176 32 R0
SYMATTR InstName L1
SYMATTR Value 1m
SYMBOL res 80 16 R90
WINDOW 0 0 56 VBottom 2
WINDOW 3 32 56 VTop 2
SYMATTR InstName R1
SYMATTR Value 10
SYMBOL TCLib\\square -512 272 R0
SYMATTR Value Vpp=10 Freq=100 Voff=5 DC=0.5
SYMATTR InstName U1
SYMBOL sw 192 304 M180
SYMATTR InstName S1
SYMATTR Value MYSW
SYMBOL cap 464 224 R0
SYMATTR InstName C1
SYMATTR Value 3n
TEXT -96 376 Left 2 !.tran 0 110m 10m
TEXT -96 416 Left 2 !.model MYSW SW(Roff=1G Ron=25u Vt=0.1 Vh=0.1)
