Version 4
SHEET 1 1308 680
WIRE 640 -512 608 -512
WIRE 736 -512 720 -512
WIRE 816 -512 800 -512
WIRE 608 -416 608 -512
WIRE 608 -416 512 -416
WIRE 672 -416 608 -416
WIRE 816 -416 816 -512
WIRE 816 -416 736 -416
WIRE 992 -416 816 -416
WIRE 512 -400 512 -416
WIRE 816 -400 816 -416
WIRE 992 -400 992 -416
WIRE 304 -320 64 -320
WIRE 304 -304 304 -320
WIRE 352 -304 304 -304
WIRE 512 -304 512 -320
WIRE 816 -304 816 -336
WIRE 816 -304 512 -304
WIRE 848 -304 816 -304
WIRE 992 -304 992 -320
WIRE 992 -304 848 -304
WIRE 304 -288 304 -304
WIRE 64 -272 64 -320
WIRE -352 -256 -496 -256
WIRE -256 -256 -352 -256
WIRE -64 -256 -256 -256
WIRE 848 -240 848 -304
WIRE -496 -224 -496 -256
WIRE -352 -192 -352 -256
WIRE 304 -192 304 -208
WIRE 352 -192 304 -192
WIRE -256 -176 -256 -256
WIRE 64 -160 64 -192
WIRE 304 -160 304 -192
WIRE 640 -160 608 -160
WIRE 736 -160 720 -160
WIRE 848 -160 800 -160
WIRE -496 -96 -496 -144
WIRE -352 -96 -352 -128
WIRE -64 -64 -64 -256
WIRE 304 -64 304 -80
WIRE 384 -64 304 -64
WIRE 528 -64 464 -64
WIRE 608 -48 608 -160
WIRE 640 -48 608 -48
WIRE 704 -48 640 -48
WIRE 848 -48 848 -160
WIRE 848 -48 768 -48
WIRE 1024 -48 848 -48
WIRE 640 -32 640 -48
WIRE 848 -32 848 -48
WIRE 1024 -32 1024 -48
WIRE -128 -16 -176 -16
WIRE 304 32 304 -64
WIRE 384 32 304 32
WIRE 528 32 528 -64
WIRE 528 32 448 32
WIRE -256 64 -256 -96
WIRE -176 64 -176 -16
WIRE -176 64 -256 64
WIRE -64 64 -64 32
WIRE 64 64 -64 64
WIRE 208 64 144 64
WIRE 528 64 528 32
WIRE 640 64 640 48
WIRE 848 64 848 32
WIRE 848 64 640 64
WIRE 880 64 848 64
WIRE 1024 64 1024 48
WIRE 1024 64 880 64
WIRE -64 96 -64 64
WIRE 304 96 304 32
WIRE 880 128 880 64
WIRE -176 144 -176 64
WIRE -128 144 -176 144
WIRE -592 160 -640 160
WIRE -512 160 -528 160
WIRE 208 176 208 64
WIRE 256 176 208 176
WIRE -256 192 -256 64
WIRE 528 208 528 128
WIRE -640 240 -640 160
WIRE -640 240 -688 240
WIRE -608 240 -640 240
WIRE -512 240 -512 160
WIRE -512 240 -528 240
WIRE -320 240 -512 240
WIRE -688 304 -688 240
WIRE -688 448 -688 384
WIRE -256 448 -256 288
WIRE -64 448 -64 192
WIRE 304 448 304 192
FLAG -352 -96 0
FLAG 64 -160 0
FLAG -496 -96 0
FLAG 848 -240 0
FLAG -688 448 0
FLAG -256 448 0
FLAG -64 448 0
FLAG 304 448 0
FLAG 880 128 0
FLAG 528 208 0
SYMBOL npn -320 192 R0
SYMATTR InstName Q1
SYMATTR Value BC547C
SYMBOL pnp -128 192 M180
SYMATTR InstName Q2
SYMATTR Value 2N2907
SYMBOL npn -128 -64 R0
SYMATTR InstName Q3
SYMATTR Value 2N2222
SYMBOL voltage -688 288 R0
WINDOW 123 0 0 Left 0
WINDOW 39 0 0 Left 0
SYMATTR InstName V1
SYMATTR Value PULSE(0 5 0 1n 1n {D*T} {T})
SYMBOL res -624 256 R270
WINDOW 0 27 56 VTop 2
WINDOW 3 3 56 VBottom 2
SYMATTR InstName R2
SYMATTR Value 470
SYMBOL cap -592 176 R270
WINDOW 0 32 32 VTop 2
WINDOW 3 0 32 VBottom 2
SYMATTR InstName C1
SYMATTR Value 1n
SYMBOL res -272 -192 R0
SYMATTR InstName R3
SYMATTR Value 1k
SYMBOL cap -368 -192 R0
SYMATTR InstName C2
SYMATTR Value 1µ
SYMBOL res 48 80 R270
WINDOW 0 27 56 VTop 2
WINDOW 3 3 56 VBottom 2
SYMATTR InstName R4
SYMATTR Value 22
SYMBOL nmos 256 96 R0
SYMATTR InstName M1
SYMATTR Value STW11NM80
SYMBOL voltage 64 -288 R0
WINDOW 123 0 0 Left 0
WINDOW 39 0 0 Left 0
SYMATTR InstName V2
SYMATTR Value 300
SYMBOL diode 672 -400 R270
WINDOW 0 32 32 VTop 2
WINDOW 3 0 32 VBottom 2
SYMATTR InstName D1
SYMATTR Value MUR460
SYMBOL voltage -496 -240 R0
WINDOW 123 0 0 Left 0
WINDOW 39 0 0 Left 0
SYMATTR InstName V3
SYMATTR Value 15
SYMBOL cap 800 -400 R0
SYMATTR InstName C3
SYMATTR Value 10µ
SYMBOL res 976 -416 R0
SYMATTR InstName R6
SYMATTR Value 4
SYMBOL ind2 320 -64 R180
WINDOW 3 36 40 Left 2
WINDOW 0 36 80 Left 2
SYMATTR Value 1570µ
SYMATTR InstName L1
SYMATTR Type ind
SYMBOL ind2 496 -416 R0
SYMATTR Value 9µ621
SYMATTR InstName L2
SYMATTR Type ind
SYMBOL diode 704 -32 R270
WINDOW 0 32 32 VTop 2
WINDOW 3 0 32 VBottom 2
SYMATTR InstName D2
SYMATTR Value MUR460
SYMBOL cap 832 -32 R0
SYMATTR InstName C4
SYMATTR Value 10µ
SYMBOL res 1008 -48 R0
SYMATTR InstName R7
SYMATTR Value 20
SYMBOL ind2 624 -48 R0
SYMATTR Value 16µ464
SYMATTR InstName L3
SYMATTR Type ind
SYMBOL cap 512 64 R0
SYMATTR InstName C5
SYMATTR Value 1.3p
SYMBOL diode 384 48 R270
WINDOW 0 32 32 VTop 2
WINDOW 3 0 32 VBottom 2
SYMATTR InstName D4
SYMATTR Value MUR460
SYMBOL res 368 -48 R270
WINDOW 0 27 56 VTop 2
WINDOW 3 3 56 VBottom 2
SYMATTR InstName R1
SYMATTR Value 120k
SYMBOL ind 288 -304 R0
SYMATTR Value 1µ
SYMATTR InstName Ld
SYMBOL cap 736 -496 R270
WINDOW 0 32 32 VTop 2
WINDOW 3 0 32 VBottom 2
SYMATTR InstName C6
SYMATTR Value 120p
SYMBOL res 736 -528 R90
WINDOW 0 3 56 VBottom 2
WINDOW 3 27 56 VTop 2
SYMATTR InstName R5
SYMATTR Value 100
SYMBOL cap 736 -144 R270
WINDOW 0 32 32 VTop 2
WINDOW 3 0 32 VBottom 2
SYMATTR InstName C8
SYMATTR Value 120p
SYMBOL res 736 -176 R90
WINDOW 0 3 56 VBottom 2
WINDOW 3 27 56 VTop 2
SYMATTR InstName R8
SYMATTR Value 100
TEXT 600 200 Left 2 !.param f=100k D=0.65 T=1/f
TEXT -720 504 Left 2 !.tran 0 1m 0 10n
TEXT 584 -264 Left 2 !K1 L1 L2 L3 1
